template
     RDKit          3D

 43 44  0  0  0  0  0  0  0  0999 V2000
    0.7575   -0.4806    2.8409 C   0  0  0  0  0  0  0  0  0  0  0  0
    0.3205   -0.6406    4.1529 C   0  0  0  0  0  0  0  0  0  0  0  0
    1.1155   -1.3216    5.0699 C   0  0  0  0  0  0  0  0  0  0  0  0
    0.6995   -1.4816    6.3419 F   0  0  0  0  0  0  0  0  0  0  0  0
    2.3455   -1.8406    4.6779 C   0  0  0  0  0  0  0  0  0  0  0  0
    2.7825   -1.6786    3.3669 C   0  0  0  0  0  0  0  0  0  0  0  0
    1.9885   -0.9996    2.4489 C   0  0  0  0  0  0  0  0  0  0  0  0
    2.5335   -0.8246    0.7969 S   0  0  0  0  0  0  0  0  0  0  0  0
    2.0735    0.5024    0.2689 O   0  0  0  0  0  0  0  0  0  0  0  0
    4.0305   -0.8946    0.7529 O   0  0  0  0  0  0  0  0  0  0  0  0
    1.8295   -2.1806   -0.2121 C   0  0  0  0  0  0  0  0  0  0  0  0
    1.2535   -1.7446   -1.5621 C   0  0  0  0  0  0  0  0  0  0  0  0
    2.2385   -0.9886   -2.2711 O   0  0  0  0  0  0  0  0  0  0  0  0
    0.8485   -2.9686   -2.3861 C   0  0  0  0  0  0  0  0  0  0  0  0
    0.0215   -0.8606   -1.3511 C   0  0  0  0  0  0  0  0  0  0  0  0
   -0.9835   -1.3066   -0.7981 O   0  0  0  0  0  0  0  0  0  0  0  0
    0.1975    0.4094   -1.7081 N   0  0  0  0  0  0  0  0  0  0  0  0
   -0.7215    1.3744   -1.6561 C   0  0  0  0  0  0  0  0  0  0  0  0
   -2.0615    1.1404   -1.3551 C   0  0  0  0  0  0  0  0  0  0  0  0
   -0.3325    2.6554   -2.0321 C   0  0  0  0  0  0  0  0  0  0  0  0
   -1.2775    3.6744   -2.0911 C   0  0  0  0  0  0  0  0  0  0  0  0
   -2.6125    3.4254   -1.7861 C   0  0  0  0  0  0  0  0  0  0  0  0
   -3.4945    4.5514   -1.8501 C   0  0  0  0  0  0  0  0  0  0  0  0
   -4.1845    5.4544   -1.9111 N   0  0  0  0  0  0  0  0  0  0  0  0
   -3.0325    2.1424   -1.4191 C   0  0  0  0  0  0  0  0  0  0  0  0
   -4.4965    1.7834   -1.0991 C   0  0  0  0  0  0  0  0  0  0  0  0
   -4.7135    1.9244    0.2049 F   0  0  0  0  0  0  0  0  0  0  0  0
   -5.3975    2.5254   -1.7371 F   0  0  0  0  0  0  0  0  0  0  0  0
   -4.7875    0.5264   -1.4251 F   0  0  0  0  0  0  0  0  0  0  0  0
    0.1393    0.0481    2.1244 H   0  0  0  0  0  0  0  0  0  0  0  0
   -0.6371   -0.2356    4.4596 H   0  0  0  0  0  0  0  0  0  0  0  0
    2.9631   -2.3710    5.3937 H   0  0  0  0  0  0  0  0  0  0  0  0
    3.7413   -2.0814    3.0612 H   0  0  0  0  0  0  0  0  0  0  0  0
    1.0232   -2.6547    0.3668 H   0  0  0  0  0  0  0  0  0  0  0  0
    2.6260   -2.9153   -0.4013 H   0  0  0  0  0  0  0  0  0  0  0  0
    2.4747   -0.2221   -1.7620 H   0  0  0  0  0  0  0  0  0  0  0  0
    0.4370   -2.6405   -3.3520 H   0  0  0  0  0  0  0  0  0  0  0  0
    0.0865   -3.5431   -1.8391 H   0  0  0  0  0  0  0  0  0  0  0  0
    1.7308   -3.6021   -2.5597 H   0  0  0  0  0  0  0  0  0  0  0  0
    1.1033    0.6637   -2.0469 H   0  0  0  0  0  0  0  0  0  0  0  0
   -2.3623    0.1417   -1.0597 H   0  0  0  0  0  0  0  0  0  0  0  0
    0.7033    2.8591   -2.2783 H   0  0  0  0  0  0  0  0  0  0  0  0
   -0.9707    4.6738   -2.3779 H   0  0  0  0  0  0  0  0  0  0  0  0
  1  2  2  0
  1  7  1  0
  1 30  1  0
  2  3  1  0
  2 31  1  0
  3  4  1  0
  3  5  2  0
  5  6  1  0
  5 32  1  0
  6  7  2  0
  6 33  1  0
  7  8  1  0
  8  9  2  0
  8 10  2  0
  8 11  1  0
 11 12  1  0
 11 34  1  0
 11 35  1  0
 12 13  1  0
 12 14  1  0
 12 15  1  0
 13 36  1  0
 14 37  1  0
 14 38  1  0
 14 39  1  0
 15 16  2  0
 15 17  1  0
 17 18  1  0
 17 40  1  0
 18 19  2  0
 18 20  1  0
 19 25  1  0
 19 41  1  0
 20 21  2  0
 20 42  1  0
 21 22  1  0
 21 43  1  0
 22 23  1  0
 22 25  2  0
 23 24  3  0
 25 26  1  0
 26 27  1  0
 26 28  1  0
 26 29  1  0
M  END
$$$$

     RDKit          3D

 43 44  0  0  0  0  0  0  0  0999 V2000
    0.5130   -0.9192    3.1714 C   0  0  0  0  0  0  0  0  0  0  0  0
    0.0528   -0.8845    4.4601 C   0  0  0  0  0  0  0  0  0  0  0  0
    0.9834   -1.0672    5.4943 C   0  0  0  0  0  0  0  0  0  0  0  0
    0.6380   -0.9534    6.4607 H   0  0  0  0  0  0  0  0  0  0  0  0
    2.3120   -1.3625    5.1645 C   0  0  0  0  0  0  0  0  0  0  0  0
    2.7168   -1.4668    3.8240 C   0  0  0  0  0  0  0  0  0  0  0  0
    1.8444   -1.2405    2.8286 C   0  0  0  0  0  0  0  0  0  0  0  0
    2.4247   -1.1654    1.0258 S   0  0  0  0  0  0  0  0  0  0  0  0
    1.9170    0.1292    0.6522 O   0  0  0  0  0  0  0  0  0  0  0  0
    3.8270   -1.4510    0.9936 O   0  0  0  0  0  0  0  0  0  0  0  0
    1.7657   -2.4259   -0.1743 C   0  0  0  0  0  0  0  0  0  0  0  0
    1.3074   -1.6305   -1.4420 C   0  0  0  0  0  0  0  0  0  0  0  0
    2.3353   -0.9027   -1.9807 O   0  0  0  0  0  0  0  0  0  0  0  0
    0.9812   -2.6251   -2.5890 C   0  0  0  0  0  0  0  0  0  0  0  0
    0.1254   -0.7493   -1.1156 C   0  0  0  0  0  0  0  0  0  0  0  0
   -0.5931   -0.8333   -0.2013 O   0  0  0  0  0  0  0  0  0  0  0  0
    0.1712    0.3550   -1.9511 N   0  0  0  0  0  0  0  0  0  0  0  0
   -0.7719    1.3691   -2.0045 C   0  0  0  0  0  0  0  0  0  0  0  0
   -2.0934    1.0650   -1.8424 C   0  0  0  0  0  0  0  0  0  0  0  0
   -0.2774    2.6999   -2.2400 C   0  0  0  0  0  0  0  0  0  0  0  0
   -1.1812    3.6963   -2.2618 C   0  0  0  0  0  0  0  0  0  0  0  0
   -2.5545    3.3773   -2.0108 C   0  0  0  0  0  0  0  0  0  0  0  0
   -3.4948    4.4562   -1.8596 C   0  0  0  0  0  0  0  0  0  0  0  0
   -4.2061    5.2721   -1.8773 N   0  0  0  0  0  0  0  0  0  0  0  0
   -2.9880    2.0470   -1.8369 C   0  0  0  0  0  0  0  0  0  0  0  0
   -4.4705    1.7312   -1.5974 C   0  0  0  0  0  0  0  0  0  0  0  0
   -4.7285    1.8916   -0.4393 H   0  0  0  0  0  0  0  0  0  0  0  0
   -5.0590    2.3855   -2.2067 H   0  0  0  0  0  0  0  0  0  0  0  0
   -4.7157    0.7767   -1.8770 H   0  0  0  0  0  0  0  0  0  0  0  0
   -0.1840   -0.6077    2.4114 H   0  0  0  0  0  0  0  0  0  0  0  0
   -0.9429   -0.7092    4.6645 H   0  0  0  0  0  0  0  0  0  0  0  0
    2.9902   -1.5171    5.8850 H   0  0  0  0  0  0  0  0  0  0  0  0
    3.7012   -1.6916    3.5057 H   0  0  0  0  0  0  0  0  0  0  0  0
    0.8909   -2.8865    0.2583 H   0  0  0  0  0  0  0  0  0  0  0  0
    2.6457   -3.1204   -0.4037 H   0  0  0  0  0  0  0  0  0  0  0  0
    2.9455   -0.5362   -1.4360 H   0  0  0  0  0  0  0  0  0  0  0  0
    0.6012   -2.0874   -3.4908 H   0  0  0  0  0  0  0  0  0  0  0  0
    0.1741   -3.2723   -2.2221 H   0  0  0  0  0  0  0  0  0  0  0  0
    1.8728   -3.1940   -2.7868 H   0  0  0  0  0  0  0  0  0  0  0  0
    1.0075    0.4904   -2.4410 H   0  0  0  0  0  0  0  0  0  0  0  0
   -2.3988    0.0392   -1.6631 H   0  0  0  0  0  0  0  0  0  0  0  0
    0.7530    2.8401   -2.4184 H   0  0  0  0  0  0  0  0  0  0  0  0
   -0.8376    4.6780   -2.4304 H   0  0  0  0  0  0  0  0  0  0  0  0
  1  2  2  0
  1  7  1  0
  1 30  1  0
  2  3  1  0
  2 31  1  0
  3  4  1  0
  3  5  2  0
  5  6  1  0
  5 32  1  0
  6  7  2  0
  6 33  1  0
  7  8  1  0
  8  9  2  0
  8 10  2  0
  8 11  1  0
 11 12  1  0
 11 34  1  0
 11 35  1  0
 12 13  1  0
 12 14  1  0
 12 15  1  0
 13 36  1  0
 14 37  1  0
 14 38  1  0
 14 39  1  0
 15 16  2  0
 15 17  1  0
 17 18  1  0
 17 40  1  0
 18 19  2  0
 18 20  1  0
 19 25  1  0
 19 41  1  0
 20 21  2  0
 20 42  1  0
 21 22  1  0
 21 43  1  0
 22 23  1  0
 22 25  2  0
 23 24  3  0
 25 26  1  0
 26 27  1  0
 26 28  1  0
 26 29  1  0
M  END
>  <smiles>  (2) 
Cc1cc(NC(=O)C(C)(O)CS(=O)(=O)c2ccccc2)ccc1C#N

>  <qed>  (2) 
0.8502432192329245

$$$$

     RDKit          3D

 43 44  0  0  0  0  0  0  0  0999 V2000
    0.8355   -0.7439    2.8972 C   0  0  0  0  0  0  0  0  0  0  0  0
    0.4711   -0.6666    4.2084 C   0  0  0  0  0  0  0  0  0  0  0  0
    1.3490   -1.0382    5.1982 C   0  0  0  0  0  0  0  0  0  0  0  0
    1.0019   -0.9229    6.2158 H   0  0  0  0  0  0  0  0  0  0  0  0
    2.6171   -1.5451    4.8682 C   0  0  0  0  0  0  0  0  0  0  0  0
    2.9281   -1.6783    3.5364 C   0  0  0  0  0  0  0  0  0  0  0  0
    2.0291   -1.2792    2.5344 C   0  0  0  0  0  0  0  0  0  0  0  0
    2.4921   -1.3822    0.7751 S   0  0  0  0  0  0  0  0  0  0  0  0
    2.3939    0.0204    0.3225 O   0  0  0  0  0  0  0  0  0  0  0  0
    3.6986   -2.1082    0.6476 O   0  0  0  0  0  0  0  0  0  0  0  0
    1.3426   -2.3946   -0.2115 C   0  0  0  0  0  0  0  0  0  0  0  0
    1.1223   -1.6787   -1.6003 C   0  0  0  0  0  0  0  0  0  0  0  0
    2.1887   -0.9807   -2.0734 O   0  0  0  0  0  0  0  0  0  0  0  0
    0.7886   -2.6935   -2.6513 C   0  0  0  0  0  0  0  0  0  0  0  0
   -0.0655   -0.7835   -1.3523 C   0  0  0  0  0  0  0  0  0  0  0  0
   -1.0488   -1.1535   -0.6796 O   0  0  0  0  0  0  0  0  0  0  0  0
    0.1472    0.3983   -1.7700 N   0  0  0  0  0  0  0  0  0  0  0  0
   -0.8494    1.4330   -1.8279 C   0  0  0  0  0  0  0  0  0  0  0  0
   -2.1463    1.1785   -1.5740 C   0  0  0  0  0  0  0  0  0  0  0  0
   -0.3815    2.6890   -2.0728 C   0  0  0  0  0  0  0  0  0  0  0  0
   -1.2125    3.7512   -2.0518 C   0  0  0  0  0  0  0  0  0  0  0  0
   -2.5235    3.5566   -1.7223 C   0  0  0  0  0  0  0  0  0  0  0  0
   -3.2697    4.6393   -1.6365 O   0  0  0  0  0  0  0  0  0  0  0  0
   -4.3086    4.4861   -1.4007 H   0  0  0  0  0  0  0  0  0  0  0  0
   -2.9852    2.2438   -1.4873 C   0  0  0  0  0  0  0  0  0  0  0  0
   -4.3730    1.9775   -1.0978 C   0  0  0  0  0  0  0  0  0  0  0  0
   -4.5305    2.2300    0.2152 F   0  0  0  0  0  0  0  0  0  0  0  0
   -5.1721    2.8018   -1.8402 F   0  0  0  0  0  0  0  0  0  0  0  0
   -4.7475    0.8439   -1.4275 F   0  0  0  0  0  0  0  0  0  0  0  0
    0.1854   -0.3263    2.1551 H   0  0  0  0  0  0  0  0  0  0  0  0
   -0.4575   -0.3035    4.4605 H   0  0  0  0  0  0  0  0  0  0  0  0
    3.2953   -1.8087    5.5751 H   0  0  0  0  0  0  0  0  0  0  0  0
    3.8579   -2.0831    3.1633 H   0  0  0  0  0  0  0  0  0  0  0  0
    1.7807   -3.3609   -0.3413 H   0  0  0  0  0  0  0  0  0  0  0  0
    0.4994   -2.4711    0.3077 H   0  0  0  0  0  0  0  0  0  0  0  0
    2.5759   -0.4912   -1.5822 H   0  0  0  0  0  0  0  0  0  0  0  0
    0.5899   -2.1871   -3.6191 H   0  0  0  0  0  0  0  0  0  0  0  0
   -0.1249   -3.2580   -2.3579 H   0  0  0  0  0  0  0  0  0  0  0  0
    1.6275   -3.4026   -2.8067 H   0  0  0  0  0  0  0  0  0  0  0  0
    1.1067    0.7550   -1.8826 H   0  0  0  0  0  0  0  0  0  0  0  0
   -2.5301    0.1685   -1.4725 H   0  0  0  0  0  0  0  0  0  0  0  0
    0.6931    2.8307   -2.2825 H   0  0  0  0  0  0  0  0  0  0  0  0
   -0.8911    4.7380   -2.2587 H   0  0  0  0  0  0  0  0  0  0  0  0
  1  2  2  0
  1  7  1  0
  1 30  1  0
  2  3  1  0
  2 31  1  0
  3  4  1  0
  3  5  2  0
  5  6  1  0
  5 32  1  0
  6  7  2  0
  6 33  1  0
  7  8  1  0
  8  9  2  0
  8 10  2  0
  8 11  1  0
 11 12  1  0
 11 34  1  0
 11 35  1  0
 12 13  1  0
 12 14  1  0
 12 15  1  0
 13 36  1  0
 14 37  1  0
 14 38  1  0
 14 39  1  0
 15 16  2  0
 15 17  1  0
 17 18  1  0
 17 40  1  0
 18 19  2  0
 18 20  1  0
 19 25  1  0
 19 41  1  0
 20 21  2  0
 20 42  1  0
 21 22  1  0
 21 43  1  0
 22 23  1  0
 22 25  2  0
 23 24  1  0
 25 26  1  0
 26 27  1  0
 26 28  1  0
 26 29  1  0
M  END
>  <smiles>  (3) 
CC(O)(CS(=O)(=O)c1ccccc1)C(=O)Nc1ccc(O)c(C(F)(F)F)c1

>  <qed>  (3) 
0.6660793954749118

$$$$

     RDKit          3D

 43 44  0  0  0  0  0  0  0  0999 V2000
    0.8781   -0.8682    2.7676 C   0  0  0  0  0  0  0  0  0  0  0  0
    0.4907   -0.8313    4.1082 C   0  0  0  0  0  0  0  0  0  0  0  0
    1.4057   -1.2155    5.0962 C   0  0  0  0  0  0  0  0  0  0  0  0
    1.0718   -1.1804    6.1157 H   0  0  0  0  0  0  0  0  0  0  0  0
    2.6729   -1.5996    4.6915 C   0  0  0  0  0  0  0  0  0  0  0  0
    3.0526   -1.6674    3.3578 C   0  0  0  0  0  0  0  0  0  0  0  0
    2.1711   -1.2884    2.4063 C   0  0  0  0  0  0  0  0  0  0  0  0
    2.6400   -1.2512    0.6544 S   0  0  0  0  0  0  0  0  0  0  0  0
    2.2880    0.0643    0.2539 O   0  0  0  0  0  0  0  0  0  0  0  0
    4.0597   -1.7320    0.5987 O   0  0  0  0  0  0  0  0  0  0  0  0
    1.7452   -2.4249   -0.4685 C   0  0  0  0  0  0  0  0  0  0  0  0
    1.1048   -1.6154   -1.6644 C   0  0  0  0  0  0  0  0  0  0  0  0
    2.0969   -0.9182   -2.3921 O   0  0  0  0  0  0  0  0  0  0  0  0
    0.4941   -2.5807   -2.6128 C   0  0  0  0  0  0  0  0  0  0  0  0
    0.0213   -0.7325   -1.0911 C   0  0  0  0  0  0  0  0  0  0  0  0
   -0.7215   -0.9387   -0.1491 O   0  0  0  0  0  0  0  0  0  0  0  0
    0.0154    0.4183   -1.6667 N   0  0  0  0  0  0  0  0  0  0  0  0
   -0.9231    1.4604   -1.6031 C   0  0  0  0  0  0  0  0  0  0  0  0
   -2.2642    1.1780   -1.3424 C   0  0  0  0  0  0  0  0  0  0  0  0
   -0.4539    2.7132   -1.7654 C   0  0  0  0  0  0  0  0  0  0  0  0
   -1.2421    3.7291   -1.7882 C   0  0  0  0  0  0  0  0  0  0  0  0
   -2.6133    3.5529   -1.5705 C   0  0  0  0  0  0  0  0  0  0  0  0
   -3.3230    4.6516   -1.6046 O   0  0  0  0  0  0  0  0  0  0  0  0
   -4.3224    4.4121   -1.4827 H   0  0  0  0  0  0  0  0  0  0  0  0
   -3.1219    2.1982   -1.3311 C   0  0  0  0  0  0  0  0  0  0  0  0
   -4.5625    1.9985   -1.0562 C   0  0  0  0  0  0  0  0  0  0  0  0
   -4.8856    2.3908   -0.0603 H   0  0  0  0  0  0  0  0  0  0  0  0
   -5.1319    2.5378   -1.8193 H   0  0  0  0  0  0  0  0  0  0  0  0
   -4.8297    0.9747   -1.1515 H   0  0  0  0  0  0  0  0  0  0  0  0
    0.2425   -0.6185    2.0146 H   0  0  0  0  0  0  0  0  0  0  0  0
   -0.4811   -0.5335    4.3762 H   0  0  0  0  0  0  0  0  0  0  0  0
    3.3646   -1.8348    5.4062 H   0  0  0  0  0  0  0  0  0  0  0  0
    3.9989   -2.0155    3.0548 H   0  0  0  0  0  0  0  0  0  0  0  0
    0.8842   -2.8521    0.1622 H   0  0  0  0  0  0  0  0  0  0  0  0
    2.4991   -3.0647   -0.8560 H   0  0  0  0  0  0  0  0  0  0  0  0
    2.5364   -0.3340   -1.9741 H   0  0  0  0  0  0  0  0  0  0  0  0
   -0.0157   -2.0900   -3.4278 H   0  0  0  0  0  0  0  0  0  0  0  0
   -0.2204   -3.2638   -2.0831 H   0  0  0  0  0  0  0  0  0  0  0  0
    1.3021   -3.1968   -3.0241 H   0  0  0  0  0  0  0  0  0  0  0  0
    0.9288    0.7126   -2.0797 H   0  0  0  0  0  0  0  0  0  0  0  0
   -2.5997    0.1309   -1.2238 H   0  0  0  0  0  0  0  0  0  0  0  0
    0.6530    2.8087   -1.8872 H   0  0  0  0  0  0  0  0  0  0  0  0
   -0.9063    4.7158   -1.8884 H   0  0  0  0  0  0  0  0  0  0  0  0
  1  2  2  0
  1  7  1  0
  1 30  1  0
  2  3  1  0
  2 31  1  0
  3  4  1  0
  3  5  2  0
  5  6  1  0
  5 32  1  0
  6  7  2  0
  6 33  1  0
  7  8  1  0
  8  9  2  0
  8 10  2  0
  8 11  1  0
 11 12  1  0
 11 34  1  0
 11 35  1  0
 12 13  1  0
 12 14  1  0
 12 15  1  0
 13 36  1  0
 14 37  1  0
 14 38  1  0
 14 39  1  0
 15 16  2  0
 15 17  1  0
 17 18  1  0
 17 40  1  0
 18 19  2  0
 18 20  1  0
 19 25  1  0
 19 41  1  0
 20 21  2  0
 20 42  1  0
 21 22  1  0
 21 43  1  0
 22 23  1  0
 22 25  2  0
 23 24  1  0
 25 26  1  0
 26 27  1  0
 26 28  1  0
 26 29  1  0
M  END
>  <smiles>  (4) 
Cc1cc(NC(=O)C(C)(O)CS(=O)(=O)c2ccccc2)ccc1O

>  <qed>  (4) 
0.7150178833109528

$$$$

     RDKit          3D

 43 44  0  0  0  0  0  0  0  0999 V2000
    1.0840   -0.5031    2.6821 C   0  0  0  0  0  0  0  0  0  0  0  0
    0.6507   -0.5943    3.9555 C   0  0  0  0  0  0  0  0  0  0  0  0
    1.4182   -1.2245    4.8679 C   0  0  0  0  0  0  0  0  0  0  0  0
    1.0247   -1.3414    5.8586 H   0  0  0  0  0  0  0  0  0  0  0  0
    2.6762   -1.6800    4.5207 C   0  0  0  0  0  0  0  0  0  0  0  0
    3.1269   -1.6362    3.2176 C   0  0  0  0  0  0  0  0  0  0  0  0
    2.3030   -1.0083    2.2583 C   0  0  0  0  0  0  0  0  0  0  0  0
    2.8143   -0.8334    0.5050 S   0  0  0  0  0  0  0  0  0  0  0  0
    2.4802    0.5395    0.1061 O   0  0  0  0  0  0  0  0  0  0  0  0
    4.1806   -1.2472    0.4124 O   0  0  0  0  0  0  0  0  0  0  0  0
    1.9443   -2.1103   -0.5007 C   0  0  0  0  0  0  0  0  0  0  0  0
    1.2154   -1.5190   -1.7562 C   0  0  0  0  0  0  0  0  0  0  0  0
    2.0576   -0.6323   -2.3973 O   0  0  0  0  0  0  0  0  0  0  0  0
    0.9002   -2.5897   -2.7013 C   0  0  0  0  0  0  0  0  0  0  0  0
   -0.0516   -0.8447   -1.2397 C   0  0  0  0  0  0  0  0  0  0  0  0
   -0.8812   -1.4269   -0.6067 O   0  0  0  0  0  0  0  0  0  0  0  0
    0.0188    0.4582   -1.4607 N   0  0  0  0  0  0  0  0  0  0  0  0
   -1.0311    1.3278   -1.4634 C   0  0  0  0  0  0  0  0  0  0  0  0
   -2.2990    0.8800   -1.2009 C   0  0  0  0  0  0  0  0  0  0  0  0
   -0.6899    2.6530   -1.6897 C   0  0  0  0  0  0  0  0  0  0  0  0
   -1.6611    3.6247   -1.7435 C   0  0  0  0  0  0  0  0  0  0  0  0
   -2.9672    3.1910   -1.3978 C   0  0  0  0  0  0  0  0  0  0  0  0
   -3.9875    4.2569   -1.2902 C   0  0  0  0  0  0  0  0  0  0  0  0
   -4.7542    4.9862   -1.2387 N   0  0  0  0  0  0  0  0  0  0  0  0
   -3.2880    1.8279   -1.1891 C   0  0  0  0  0  0  0  0  0  0  0  0
   -4.7592    1.4751   -0.8555 C   0  0  0  0  0  0  0  0  0  0  0  0
   -4.9599    1.5266    0.2563 H   0  0  0  0  0  0  0  0  0  0  0  0
   -5.3626    2.1365   -1.3454 H   0  0  0  0  0  0  0  0  0  0  0  0
   -5.0089    0.4964   -1.1893 H   0  0  0  0  0  0  0  0  0  0  0  0
    0.4339    0.0068    2.0541 H   0  0  0  0  0  0  0  0  0  0  0  0
   -0.2393   -0.1777    4.2972 H   0  0  0  0  0  0  0  0  0  0  0  0
    3.2879   -2.1161    5.2065 H   0  0  0  0  0  0  0  0  0  0  0  0
    4.0642   -2.0157    2.9300 H   0  0  0  0  0  0  0  0  0  0  0  0
    1.1585   -2.4673    0.1383 H   0  0  0  0  0  0  0  0  0  0  0  0
    2.7160   -2.7840   -0.8361 H   0  0  0  0  0  0  0  0  0  0  0  0
    2.5912   -0.2073   -1.9650 H   0  0  0  0  0  0  0  0  0  0  0  0
    0.2742   -2.2448   -3.4926 H   0  0  0  0  0  0  0  0  0  0  0  0
    0.3508   -3.4471   -2.1931 H   0  0  0  0  0  0  0  0  0  0  0  0
    1.8512   -3.0105   -3.1498 H   0  0  0  0  0  0  0  0  0  0  0  0
    0.9857    0.8560   -1.4714 H   0  0  0  0  0  0  0  0  0  0  0  0
   -2.5983   -0.1082   -1.0382 H   0  0  0  0  0  0  0  0  0  0  0  0
    0.3561    2.9372   -1.8441 H   0  0  0  0  0  0  0  0  0  0  0  0
   -1.4262    4.5902   -2.0099 H   0  0  0  0  0  0  0  0  0  0  0  0
  1  2  2  0
  1  7  1  0
  1 30  1  0
  2  3  1  0
  2 31  1  0
  3  4  1  0
  3  5  2  0
  5  6  1  0
  5 32  1  0
  6  7  2  0
  6 33  1  0
  7  8  1  0
  8  9  2  0
  8 10  2  0
  8 11  1  0
 11 12  1  0
 11 34  1  0
 11 35  1  0
 12 13  1  0
 12 14  1  0
 12 15  1  0
 13 36  1  0
 14 37  1  0
 14 38  1  0
 14 39  1  0
 15 16  2  0
 15 17  1  0
 17 18  1  0
 17 40  1  0
 18 19  2  0
 18 20  1  0
 19 25  1  0
 19 41  1  0
 20 21  2  0
 20 42  1  0
 21 22  1  0
 21 43  1  0
 22 23  1  0
 22 25  2  0
 23 24  3  0
 25 26  1  0
 26 27  1  0
 26 28  1  0
 26 29  1  0
M  END
>  <smiles>  (5) 
Cc1cc(NC(=O)C(C)(O)CS(=O)(=O)c2ccccc2)ccc1C#N

>  <qed>  (5) 
0.8502432192329245

$$$$

     RDKit          3D

 43 44  0  0  0  0  0  0  0  0999 V2000
    0.8102   -0.7166    3.1213 C   0  0  0  0  0  0  0  0  0  0  0  0
    0.4799   -0.6032    4.4592 C   0  0  0  0  0  0  0  0  0  0  0  0
    1.3834   -0.9629    5.4389 C   0  0  0  0  0  0  0  0  0  0  0  0
    1.0959   -0.8364    6.4319 H   0  0  0  0  0  0  0  0  0  0  0  0
    2.6452   -1.4633    5.0439 C   0  0  0  0  0  0  0  0  0  0  0  0
    2.9898   -1.5674    3.6845 C   0  0  0  0  0  0  0  0  0  0  0  0
    2.0748   -1.2051    2.6893 C   0  0  0  0  0  0  0  0  0  0  0  0
    2.4701   -1.1798    0.8618 S   0  0  0  0  0  0  0  0  0  0  0  0
    1.9690    0.0549    0.5236 O   0  0  0  0  0  0  0  0  0  0  0  0
    3.8926   -1.4623    0.6699 O   0  0  0  0  0  0  0  0  0  0  0  0
    1.6253   -2.4434   -0.1948 C   0  0  0  0  0  0  0  0  0  0  0  0
    1.2267   -1.7128   -1.5595 C   0  0  0  0  0  0  0  0  0  0  0  0
    2.2992   -0.9807   -2.1320 O   0  0  0  0  0  0  0  0  0  0  0  0
    0.8085   -2.8367   -2.5304 C   0  0  0  0  0  0  0  0  0  0  0  0
    0.0296   -0.7939   -1.2459 C   0  0  0  0  0  0  0  0  0  0  0  0
   -0.8327   -1.0026   -0.4071 O   0  0  0  0  0  0  0  0  0  0  0  0
    0.0784    0.3159   -1.9865 N   0  0  0  0  0  0  0  0  0  0  0  0
   -0.9062    1.3096   -2.0163 C   0  0  0  0  0  0  0  0  0  0  0  0
   -2.2341    1.0057   -1.6814 C   0  0  0  0  0  0  0  0  0  0  0  0
   -0.4847    2.5567   -2.3191 C   0  0  0  0  0  0  0  0  0  0  0  0
   -1.3457    3.6723   -2.2255 C   0  0  0  0  0  0  0  0  0  0  0  0
   -2.6723    3.4041   -1.9210 C   0  0  0  0  0  0  0  0  0  0  0  0
   -3.5705    4.6187   -1.8471 C   0  0  0  0  0  0  0  0  0  0  0  0
   -4.1423    5.4530   -1.7672 N   0  0  0  0  0  0  0  0  0  0  0  0
   -3.1456    2.1075   -1.6640 C   0  0  0  0  0  0  0  0  0  0  0  0
   -4.6176    1.8688   -1.3092 C   0  0  0  0  0  0  0  0  0  0  0  0
   -4.7339    1.9753   -0.1486 H   0  0  0  0  0  0  0  0  0  0  0  0
   -5.1786    2.5631   -1.8479 H   0  0  0  0  0  0  0  0  0  0  0  0
   -4.9445    0.8874   -1.6192 H   0  0  0  0  0  0  0  0  0  0  0  0
    0.1332   -0.3788    2.4101 H   0  0  0  0  0  0  0  0  0  0  0  0
   -0.4526   -0.2481    4.7483 H   0  0  0  0  0  0  0  0  0  0  0  0
    3.2880   -1.7462    5.7219 H   0  0  0  0  0  0  0  0  0  0  0  0
    3.9527   -1.8835    3.3649 H   0  0  0  0  0  0  0  0  0  0  0  0
    0.6963   -2.6709    0.2775 H   0  0  0  0  0  0  0  0  0  0  0  0
    2.3281   -3.2327   -0.3869 H   0  0  0  0  0  0  0  0  0  0  0  0
    2.8552   -0.6057   -1.5779 H   0  0  0  0  0  0  0  0  0  0  0  0
    0.5186   -2.3789   -3.4589 H   0  0  0  0  0  0  0  0  0  0  0  0
   -0.0479   -3.4219   -2.0769 H   0  0  0  0  0  0  0  0  0  0  0  0
    1.6332   -3.4787   -2.6948 H   0  0  0  0  0  0  0  0  0  0  0  0
    1.0322    0.5884   -2.3349 H   0  0  0  0  0  0  0  0  0  0  0  0
   -2.5677    0.0365   -1.4950 H   0  0  0  0  0  0  0  0  0  0  0  0
    0.5305    2.7394   -2.6468 H   0  0  0  0  0  0  0  0  0  0  0  0
   -0.9695    4.6552   -2.3522 H   0  0  0  0  0  0  0  0  0  0  0  0
  1  2  2  0
  1  7  1  0
  1 30  1  0
  2  3  1  0
  2 31  1  0
  3  4  1  0
  3  5  2  0
  5  6  1  0
  5 32  1  0
  6  7  2  0
  6 33  1  0
  7  8  1  0
  8  9  2  0
  8 10  2  0
  8 11  1  0
 11 12  1  0
 11 34  1  0
 11 35  1  0
 12 13  1  0
 12 14  1  0
 12 15  1  0
 13 36  1  0
 14 37  1  0
 14 38  1  0
 14 39  1  0
 15 16  2  0
 15 17  1  0
 17 18  1  0
 17 40  1  0
 18 19  2  0
 18 20  1  0
 19 25  1  0
 19 41  1  0
 20 21  2  0
 20 42  1  0
 21 22  1  0
 21 43  1  0
 22 23  1  0
 22 25  2  0
 23 24  3  0
 25 26  1  0
 26 27  1  0
 26 28  1  0
 26 29  1  0
M  END
>  <smiles>  (6) 
Cc1cc(NC(=O)C(C)(O)CS(=O)(=O)c2ccccc2)ccc1C#N

>  <qed>  (6) 
0.8502432192329245

$$$$

     RDKit          3D

 43 44  0  0  0  0  0  0  0  0999 V2000
    0.9339   -0.5146    2.8535 C   0  0  0  0  0  0  0  0  0  0  0  0
    0.5779   -0.4940    4.1899 C   0  0  0  0  0  0  0  0  0  0  0  0
    1.4244   -1.0287    5.0926 C   0  0  0  0  0  0  0  0  0  0  0  0
    1.1505   -0.9327    6.1209 H   0  0  0  0  0  0  0  0  0  0  0  0
    2.5872   -1.6503    4.6929 C   0  0  0  0  0  0  0  0  0  0  0  0
    2.9243   -1.7047    3.3317 C   0  0  0  0  0  0  0  0  0  0  0  0
    2.0815   -1.1330    2.4041 C   0  0  0  0  0  0  0  0  0  0  0  0
    2.5716   -1.0929    0.6645 S   0  0  0  0  0  0  0  0  0  0  0  0
    2.2205    0.1816    0.2346 O   0  0  0  0  0  0  0  0  0  0  0  0
    3.9909   -1.4526    0.6827 O   0  0  0  0  0  0  0  0  0  0  0  0
    1.8428   -2.3038   -0.4328 C   0  0  0  0  0  0  0  0  0  0  0  0
    1.2535   -1.5594   -1.6585 C   0  0  0  0  0  0  0  0  0  0  0  0
    2.2342   -0.8104   -2.3588 O   0  0  0  0  0  0  0  0  0  0  0  0
    0.7963   -2.5923   -2.7221 C   0  0  0  0  0  0  0  0  0  0  0  0
    0.0528   -0.7285   -1.2120 C   0  0  0  0  0  0  0  0  0  0  0  0
   -0.7583   -1.0856   -0.3621 O   0  0  0  0  0  0  0  0  0  0  0  0
    0.0552    0.4623   -1.7786 N   0  0  0  0  0  0  0  0  0  0  0  0
   -0.9790    1.4229   -1.6802 C   0  0  0  0  0  0  0  0  0  0  0  0
   -2.2655    1.0617   -1.3854 C   0  0  0  0  0  0  0  0  0  0  0  0
   -0.6169    2.6999   -1.8989 C   0  0  0  0  0  0  0  0  0  0  0  0
   -1.5046    3.6498   -1.8098 C   0  0  0  0  0  0  0  0  0  0  0  0
   -2.8254    3.3555   -1.5379 C   0  0  0  0  0  0  0  0  0  0  0  0
   -3.6490    4.2595   -1.4539 O   0  0  0  0  0  0  0  0  0  0  0  0
   -4.5573    4.0979   -1.3985 H   0  0  0  0  0  0  0  0  0  0  0  0
   -3.1997    2.0268   -1.3269 C   0  0  0  0  0  0  0  0  0  0  0  0
   -4.6097    1.6818   -0.9572 C   0  0  0  0  0  0  0  0  0  0  0  0
   -4.7493    1.7592    0.1166 H   0  0  0  0  0  0  0  0  0  0  0  0
   -5.3059    2.2529   -1.4997 H   0  0  0  0  0  0  0  0  0  0  0  0
   -4.7333    0.6563   -1.2811 H   0  0  0  0  0  0  0  0  0  0  0  0
    0.2479   -0.0074    2.2195 H   0  0  0  0  0  0  0  0  0  0  0  0
   -0.3245   -0.0715    4.4647 H   0  0  0  0  0  0  0  0  0  0  0  0
    3.2205   -2.1012    5.3964 H   0  0  0  0  0  0  0  0  0  0  0  0
    3.8051   -2.1566    2.9941 H   0  0  0  0  0  0  0  0  0  0  0  0
    1.0409   -2.7785    0.1063 H   0  0  0  0  0  0  0  0  0  0  0  0
    2.6579   -2.9940   -0.7469 H   0  0  0  0  0  0  0  0  0  0  0  0
    2.5779   -0.3008   -1.7988 H   0  0  0  0  0  0  0  0  0  0  0  0
    0.5501   -2.0606   -3.6027 H   0  0  0  0  0  0  0  0  0  0  0  0
   -0.0095   -3.1446   -2.2793 H   0  0  0  0  0  0  0  0  0  0  0  0
    1.6547   -3.3021   -2.8695 H   0  0  0  0  0  0  0  0  0  0  0  0
    0.9906    0.8126   -2.1033 H   0  0  0  0  0  0  0  0  0  0  0  0
   -2.5647    0.0135   -1.2544 H   0  0  0  0  0  0  0  0  0  0  0  0
    0.4581    2.9033   -2.1827 H   0  0  0  0  0  0  0  0  0  0  0  0
   -1.2487    4.7033   -1.9729 H   0  0  0  0  0  0  0  0  0  0  0  0
  1  2  2  0
  1  7  1  0
  1 30  1  0
  2  3  1  0
  2 31  1  0
  3  4  1  0
  3  5  2  0
  5  6  1  0
  5 32  1  0
  6  7  2  0
  6 33  1  0
  7  8  1  0
  8  9  2  0
  8 10  2  0
  8 11  1  0
 11 12  1  0
 11 34  1  0
 11 35  1  0
 12 13  1  0
 12 14  1  0
 12 15  1  0
 13 36  1  0
 14 37  1  0
 14 38  1  0
 14 39  1  0
 15 16  2  0
 15 17  1  0
 17 18  1  0
 17 40  1  0
 18 19  2  0
 18 20  1  0
 19 25  1  0
 19 41  1  0
 20 21  2  0
 20 42  1  0
 21 22  1  0
 21 43  1  0
 22 23  1  0
 22 25  2  0
 23 24  1  0
 25 26  1  0
 26 27  1  0
 26 28  1  0
 26 29  1  0
M  END
>  <smiles>  (7) 
Cc1cc(NC(=O)C(C)(O)CS(=O)(=O)c2ccccc2)ccc1O

>  <qed>  (7) 
0.7150178833109528

$$$$

     RDKit          3D

 43 44  0  0  0  0  0  0  0  0999 V2000
    0.8514   -0.8609    2.8633 C   0  0  0  0  0  0  0  0  0  0  0  0
    0.5411   -0.7794    4.2390 C   0  0  0  0  0  0  0  0  0  0  0  0
    1.4642   -1.2169    5.0863 C   0  0  0  0  0  0  0  0  0  0  0  0
    1.2001   -1.0992    6.1515 H   0  0  0  0  0  0  0  0  0  0  0  0
    2.6214   -1.7601    4.6116 C   0  0  0  0  0  0  0  0  0  0  0  0
    2.9432   -1.8492    3.2948 C   0  0  0  0  0  0  0  0  0  0  0  0
    2.0669   -1.3559    2.3852 C   0  0  0  0  0  0  0  0  0  0  0  0
    2.4478   -1.2611    0.6344 S   0  0  0  0  0  0  0  0  0  0  0  0
    2.1975    0.1310    0.1838 O   0  0  0  0  0  0  0  0  0  0  0  0
    3.8403   -1.6820    0.4015 O   0  0  0  0  0  0  0  0  0  0  0  0
    1.4457   -2.4314   -0.4092 C   0  0  0  0  0  0  0  0  0  0  0  0
    0.9451   -1.7537   -1.7216 C   0  0  0  0  0  0  0  0  0  0  0  0
    1.9388   -1.1337   -2.3927 O   0  0  0  0  0  0  0  0  0  0  0  0
    0.4668   -2.8145   -2.6735 C   0  0  0  0  0  0  0  0  0  0  0  0
   -0.1888   -0.8510   -1.3382 C   0  0  0  0  0  0  0  0  0  0  0  0
   -1.1652   -1.2335   -0.6543 O   0  0  0  0  0  0  0  0  0  0  0  0
    0.0598    0.4342   -1.6510 N   0  0  0  0  0  0  0  0  0  0  0  0
   -0.8199    1.4318   -1.5650 C   0  0  0  0  0  0  0  0  0  0  0  0
   -2.1538    1.2351   -1.3185 C   0  0  0  0  0  0  0  0  0  0  0  0
   -0.2486    2.7423   -1.7902 C   0  0  0  0  0  0  0  0  0  0  0  0
   -1.0460    3.7920   -1.7657 C   0  0  0  0  0  0  0  0  0  0  0  0
   -2.3832    3.6011   -1.5183 C   0  0  0  0  0  0  0  0  0  0  0  0
   -3.2233    4.7624   -1.4600 C   0  0  0  0  0  0  0  0  0  0  0  0
   -3.7746    5.7480   -1.5070 N   0  0  0  0  0  0  0  0  0  0  0  0
   -2.9917    2.3135   -1.2817 C   0  0  0  0  0  0  0  0  0  0  0  0
   -4.4613    2.1610   -0.9528 C   0  0  0  0  0  0  0  0  0  0  0  0
   -4.6117    2.2461    0.1460 H   0  0  0  0  0  0  0  0  0  0  0  0
   -4.9612    2.9446   -1.4604 H   0  0  0  0  0  0  0  0  0  0  0  0
   -4.8306    1.2161   -1.3326 H   0  0  0  0  0  0  0  0  0  0  0  0
    0.1206   -0.4999    2.2022 H   0  0  0  0  0  0  0  0  0  0  0  0
   -0.4236   -0.3861    4.5882 H   0  0  0  0  0  0  0  0  0  0  0  0
    3.3374   -2.1739    5.3651 H   0  0  0  0  0  0  0  0  0  0  0  0
    3.8296   -2.2783    2.9504 H   0  0  0  0  0  0  0  0  0  0  0  0
    0.5903   -2.6018    0.1119 H   0  0  0  0  0  0  0  0  0  0  0  0
    2.1518   -3.2667   -0.6880 H   0  0  0  0  0  0  0  0  0  0  0  0
    2.5071   -0.6919   -2.0813 H   0  0  0  0  0  0  0  0  0  0  0  0
    0.0971   -2.3376   -3.5801 H   0  0  0  0  0  0  0  0  0  0  0  0
   -0.3240   -3.4268   -2.2047 H   0  0  0  0  0  0  0  0  0  0  0  0
    1.2670   -3.5485   -2.9766 H   0  0  0  0  0  0  0  0  0  0  0  0
    1.0816    0.6557   -1.8360 H   0  0  0  0  0  0  0  0  0  0  0  0
   -2.5992    0.2622   -1.0664 H   0  0  0  0  0  0  0  0  0  0  0  0
    0.8382    2.8094   -2.0101 H   0  0  0  0  0  0  0  0  0  0  0  0
   -0.6439    4.8074   -1.9794 H   0  0  0  0  0  0  0  0  0  0  0  0
  1  2  2  0
  1  7  1  0
  1 30  1  0
  2  3  1  0
  2 31  1  0
  3  4  1  0
  3  5  2  0
  5  6  1  0
  5 32  1  0
  6  7  2  0
  6 33  1  0
  7  8  1  0
  8  9  2  0
  8 10  2  0
  8 11  1  0
 11 12  1  0
 11 34  1  0
 11 35  1  0
 12 13  1  0
 12 14  1  0
 12 15  1  0
 13 36  1  0
 14 37  1  0
 14 38  1  0
 14 39  1  0
 15 16  2  0
 15 17  1  0
 17 18  1  0
 17 40  1  0
 18 19  2  0
 18 20  1  0
 19 25  1  0
 19 41  1  0
 20 21  2  0
 20 42  1  0
 21 22  1  0
 21 43  1  0
 22 23  1  0
 22 25  2  0
 23 24  3  0
 25 26  1  0
 26 27  1  0
 26 28  1  0
 26 29  1  0
M  END
>  <smiles>  (8) 
Cc1cc(NC(=O)C(C)(O)CS(=O)(=O)c2ccccc2)ccc1C#N

>  <qed>  (8) 
0.8502432192329245

$$$$

     RDKit          3D

 43 44  0  0  0  0  0  0  0  0999 V2000
    0.8293   -0.7315    3.3095 C   0  0  0  0  0  0  0  0  0  0  0  0
    0.5704   -0.7057    4.6412 C   0  0  0  0  0  0  0  0  0  0  0  0
    1.5149   -1.2690    5.4536 C   0  0  0  0  0  0  0  0  0  0  0  0
    1.1797   -1.2123    7.1184 Cl  0  0  0  0  0  0  0  0  0  0  0  0
    2.7125   -1.8733    4.9476 C   0  0  0  0  0  0  0  0  0  0  0  0
    2.9402   -1.8839    3.5763 C   0  0  0  0  0  0  0  0  0  0  0  0
    1.9951   -1.2940    2.7134 C   0  0  0  0  0  0  0  0  0  0  0  0
    2.3028   -1.1701    0.8915 S   0  0  0  0  0  0  0  0  0  0  0  0
    1.7632    0.1152    0.5958 O   0  0  0  0  0  0  0  0  0  0  0  0
    3.6596   -1.4612    0.6179 O   0  0  0  0  0  0  0  0  0  0  0  0
    1.4289   -2.4194   -0.1848 C   0  0  0  0  0  0  0  0  0  0  0  0
    1.0972   -1.6644   -1.5050 C   0  0  0  0  0  0  0  0  0  0  0  0
    2.1896   -0.9743   -2.0797 O   0  0  0  0  0  0  0  0  0  0  0  0
    0.7272   -2.6966   -2.5478 C   0  0  0  0  0  0  0  0  0  0  0  0
   -0.0421   -0.7468   -1.2358 C   0  0  0  0  0  0  0  0  0  0  0  0
   -0.9930   -1.0582   -0.5320 O   0  0  0  0  0  0  0  0  0  0  0  0
    0.0143    0.3584   -1.9094 N   0  0  0  0  0  0  0  0  0  0  0  0
   -0.8924    1.4464   -1.9857 C   0  0  0  0  0  0  0  0  0  0  0  0
   -2.2556    1.2333   -1.7109 C   0  0  0  0  0  0  0  0  0  0  0  0
   -0.3856    2.6316   -2.2656 C   0  0  0  0  0  0  0  0  0  0  0  0
   -1.1701    3.7046   -2.3087 C   0  0  0  0  0  0  0  0  0  0  0  0
   -2.5305    3.5767   -2.0165 C   0  0  0  0  0  0  0  0  0  0  0  0
   -3.3191    4.6767   -2.0558 O   0  0  0  0  0  0  0  0  0  0  0  0
   -4.2704    4.4704   -2.0242 H   0  0  0  0  0  0  0  0  0  0  0  0
   -3.0969    2.3016   -1.7189 C   0  0  0  0  0  0  0  0  0  0  0  0
   -4.5392    2.1576   -1.2961 C   0  0  0  0  0  0  0  0  0  0  0  0
   -4.6686    2.5108   -0.2664 H   0  0  0  0  0  0  0  0  0  0  0  0
   -5.2094    2.6824   -2.0305 H   0  0  0  0  0  0  0  0  0  0  0  0
   -4.8426    1.0845   -1.3970 H   0  0  0  0  0  0  0  0  0  0  0  0
    0.0760   -0.2171    2.6813 H   0  0  0  0  0  0  0  0  0  0  0  0
   -0.3035   -0.2916    5.0627 H   0  0  0  0  0  0  0  0  0  0  0  0
    3.3452   -2.2966    5.5570 H   0  0  0  0  0  0  0  0  0  0  0  0
    3.8238   -2.3575    3.2027 H   0  0  0  0  0  0  0  0  0  0  0  0
    0.5324   -2.6454    0.3399 H   0  0  0  0  0  0  0  0  0  0  0  0
    2.1111   -3.2635   -0.3339 H   0  0  0  0  0  0  0  0  0  0  0  0
    2.6470   -0.6363   -1.6608 H   0  0  0  0  0  0  0  0  0  0  0  0
    0.5096   -2.2184   -3.4941 H   0  0  0  0  0  0  0  0  0  0  0  0
   -0.1420   -3.2567   -2.1969 H   0  0  0  0  0  0  0  0  0  0  0  0
    1.5783   -3.3625   -2.7276 H   0  0  0  0  0  0  0  0  0  0  0  0
    0.9167    0.5869   -2.4198 H   0  0  0  0  0  0  0  0  0  0  0  0
   -2.6233    0.2229   -1.4795 H   0  0  0  0  0  0  0  0  0  0  0  0
    1.3351    2.7284   -2.7090 Cl  0  0  0  0  0  0  0  0  0  0  0  0
   -0.5158    5.2179   -2.6162 Cl  0  0  0  0  0  0  0  0  0  0  0  0
  1  2  2  0
  1  7  1  0
  1 30  1  0
  2  3  1  0
  2 31  1  0
  3  4  1  0
  3  5  2  0
  5  6  1  0
  5 32  1  0
  6  7  2  0
  6 33  1  0
  7  8  1  0
  8  9  2  0
  8 10  2  0
  8 11  1  0
 11 12  1  0
 11 34  1  0
 11 35  1  0
 12 13  1  0
 12 14  1  0
 12 15  1  0
 13 36  1  0
 14 37  1  0
 14 38  1  0
 14 39  1  0
 15 16  2  0
 15 17  1  0
 17 18  1  0
 17 40  1  0
 18 19  2  0
 18 20  1  0
 19 25  1  0
 19 41  1  0
 20 21  2  0
 20 42  1  0
 21 22  1  0
 21 43  1  0
 22 23  1  0
 22 25  2  0
 23 24  1  0
 25 26  1  0
 26 27  1  0
 26 28  1  0
 26 29  1  0
M  END
>  <smiles>  (9) 
Cc1cc(NC(=O)C(C)(O)CS(=O)(=O)c2ccc(Cl)cc2)c(Cl)c(Cl)c1O

>  <qed>  (9) 
0.5982941041257438

$$$$

     RDKit          3D

 43 44  0  0  0  0  0  0  0  0999 V2000
    0.6042   -0.8883    3.1323 C   0  0  0  0  0  0  0  0  0  0  0  0
    0.0765   -0.8423    4.3492 C   0  0  0  0  0  0  0  0  0  0  0  0
    0.8351   -1.2962    5.3773 C   0  0  0  0  0  0  0  0  0  0  0  0
    0.1381   -1.2198    6.9602 Cl  0  0  0  0  0  0  0  0  0  0  0  0
    2.1408   -1.8254    5.1502 C   0  0  0  0  0  0  0  0  0  0  0  0
    2.6090   -1.8670    3.8655 C   0  0  0  0  0  0  0  0  0  0  0  0
    1.8179   -1.3848    2.7802 C   0  0  0  0  0  0  0  0  0  0  0  0
    2.4896   -1.1950    1.1209 S   0  0  0  0  0  0  0  0  0  0  0  0
    2.1745    0.1467    0.7407 O   0  0  0  0  0  0  0  0  0  0  0  0
    3.9476   -1.5278    1.2284 O   0  0  0  0  0  0  0  0  0  0  0  0
    1.8375   -2.3080   -0.1462 C   0  0  0  0  0  0  0  0  0  0  0  0
    1.4297   -1.4293   -1.4711 C   0  0  0  0  0  0  0  0  0  0  0  0
    2.5078   -0.7033   -1.9588 O   0  0  0  0  0  0  0  0  0  0  0  0
    1.0779   -2.4949   -2.5134 C   0  0  0  0  0  0  0  0  0  0  0  0
    0.2582   -0.5624   -1.1287 C   0  0  0  0  0  0  0  0  0  0  0  0
   -0.5733   -0.8223   -0.2042 O   0  0  0  0  0  0  0  0  0  0  0  0
    0.2512    0.4668   -1.8809 N   0  0  0  0  0  0  0  0  0  0  0  0
   -0.7753    1.4299   -2.0727 C   0  0  0  0  0  0  0  0  0  0  0  0
   -2.0669    1.0478   -1.8485 C   0  0  0  0  0  0  0  0  0  0  0  0
   -0.3450    2.7266   -2.3945 C   0  0  0  0  0  0  0  0  0  0  0  0
   -1.2888    3.7400   -2.3693 C   0  0  0  0  0  0  0  0  0  0  0  0
   -2.5874    3.3866   -2.0883 C   0  0  0  0  0  0  0  0  0  0  0  0
   -3.5908    4.4831   -1.9246 C   0  0  0  0  0  0  0  0  0  0  0  0
   -4.3324    5.3204   -1.7193 N   0  0  0  0  0  0  0  0  0  0  0  0
   -3.0550    2.0691   -1.8626 C   0  0  0  0  0  0  0  0  0  0  0  0
   -4.5191    1.7956   -1.5855 C   0  0  0  0  0  0  0  0  0  0  0  0
   -4.7973    2.1473   -0.5980 H   0  0  0  0  0  0  0  0  0  0  0  0
   -5.0687    2.2559   -2.4180 H   0  0  0  0  0  0  0  0  0  0  0  0
   -4.6960    0.7614   -1.6786 H   0  0  0  0  0  0  0  0  0  0  0  0
    0.0097   -0.4441    2.3323 H   0  0  0  0  0  0  0  0  0  0  0  0
   -0.8799   -0.5020    4.5545 H   0  0  0  0  0  0  0  0  0  0  0  0
    2.6882   -2.1559    5.9113 H   0  0  0  0  0  0  0  0  0  0  0  0
    3.5909   -2.2532    3.6252 H   0  0  0  0  0  0  0  0  0  0  0  0
    0.9688   -2.7222    0.2004 H   0  0  0  0  0  0  0  0  0  0  0  0
    2.6989   -2.9548   -0.4355 H   0  0  0  0  0  0  0  0  0  0  0  0
    2.9990   -0.4348   -1.4005 H   0  0  0  0  0  0  0  0  0  0  0  0
    0.6487   -1.9255   -3.5608 F   0  0  0  0  0  0  0  0  0  0  0  0
    0.1777   -3.3747   -2.0792 F   0  0  0  0  0  0  0  0  0  0  0  0
    2.1360   -3.1802   -2.8639 F   0  0  0  0  0  0  0  0  0  0  0  0
    1.2334    0.8308   -2.1815 H   0  0  0  0  0  0  0  0  0  0  0  0
   -2.3946    0.0468   -1.7242 H   0  0  0  0  0  0  0  0  0  0  0  0
    0.6354    2.9837   -2.6793 H   0  0  0  0  0  0  0  0  0  0  0  0
   -1.0116    4.6761   -2.5404 H   0  0  0  0  0  0  0  0  0  0  0  0
  1  2  2  0
  1  7  1  0
  1 30  1  0
  2  3  1  0
  2 31  1  0
  3  4  1  0
  3  5  2  0
  5  6  1  0
  5 32  1  0
  6  7  2  0
  6 33  1  0
  7  8  1  0
  8  9  2  0
  8 10  2  0
  8 11  1  0
 11 12  1  0
 11 34  1  0
 11 35  1  0
 12 13  1  0
 12 14  1  0
 12 15  1  0
 13 36  1  0
 14 37  1  0
 14 38  1  0
 14 39  1  0
 15 16  2  0
 15 17  1  0
 17 18  1  0
 17 40  1  0
 18 19  2  0
 18 20  1  0
 19 25  1  0
 19 41  1  0
 20 21  2  0
 20 42  1  0
 21 22  1  0
 21 43  1  0
 22 23  1  0
 22 25  2  0
 23 24  3  0
 25 26  1  0
 26 27  1  0
 26 28  1  0
 26 29  1  0
M  END
>  <smiles>  (10) 
Cc1cc(NC(=O)C(O)(CS(=O)(=O)c2ccc(Cl)cc2)C(F)(F)F)ccc1C#N

>  <qed>  (10) 
0.732863720946364

$$$$

     RDKit          3D

 43 44  0  0  0  0  0  0  0  0999 V2000
    0.6803   -1.3073    2.8250 C   0  0  0  0  0  0  0  0  0  0  0  0
    0.3016   -1.4939    4.1075 C   0  0  0  0  0  0  0  0  0  0  0  0
    1.2743   -2.0489    4.9897 C   0  0  0  0  0  0  0  0  0  0  0  0
    0.7581   -2.1500    6.6049 Cl  0  0  0  0  0  0  0  0  0  0  0  0
    2.5080   -2.4213    4.5320 C   0  0  0  0  0  0  0  0  0  0  0  0
    2.8651   -2.2353    3.2181 C   0  0  0  0  0  0  0  0  0  0  0  0
    1.9391   -1.6653    2.3641 C   0  0  0  0  0  0  0  0  0  0  0  0
    2.4861   -1.3066    0.6664 S   0  0  0  0  0  0  0  0  0  0  0  0
    2.0711    0.0778    0.4717 O   0  0  0  0  0  0  0  0  0  0  0  0
    3.9210   -1.6330    0.5610 O   0  0  0  0  0  0  0  0  0  0  0  0
    1.6610   -2.2700   -0.6889 C   0  0  0  0  0  0  0  0  0  0  0  0
    1.2186   -1.3546   -1.8099 C   0  0  0  0  0  0  0  0  0  0  0  0
    2.2684   -0.5402   -2.2212 O   0  0  0  0  0  0  0  0  0  0  0  0
    0.8667   -2.2732   -3.0786 C   0  0  0  0  0  0  0  0  0  0  0  0
   -0.0013   -0.5984   -1.3294 C   0  0  0  0  0  0  0  0  0  0  0  0
   -0.8690   -0.9913   -0.5075 O   0  0  0  0  0  0  0  0  0  0  0  0
    0.1014    0.6438   -1.7114 N   0  0  0  0  0  0  0  0  0  0  0  0
   -0.8614    1.6563   -1.5695 C   0  0  0  0  0  0  0  0  0  0  0  0
   -2.1442    1.3304   -1.2816 C   0  0  0  0  0  0  0  0  0  0  0  0
   -0.3563    2.9622   -1.6476 C   0  0  0  0  0  0  0  0  0  0  0  0
   -1.2356    4.0396   -1.5944 C   0  0  0  0  0  0  0  0  0  0  0  0
   -2.5495    3.7082   -1.3239 C   0  0  0  0  0  0  0  0  0  0  0  0
   -3.5308    4.8261   -1.2259 C   0  0  0  0  0  0  0  0  0  0  0  0
   -4.2832    5.6720   -1.1877 N   0  0  0  0  0  0  0  0  0  0  0  0
   -3.0471    2.3787   -1.1271 C   0  0  0  0  0  0  0  0  0  0  0  0
   -4.5102    2.1766   -0.7887 C   0  0  0  0  0  0  0  0  0  0  0  0
   -4.8010    2.3814    0.2982 H   0  0  0  0  0  0  0  0  0  0  0  0
   -5.0489    2.8070   -1.3693 H   0  0  0  0  0  0  0  0  0  0  0  0
   -4.7658    1.1558   -1.0547 H   0  0  0  0  0  0  0  0  0  0  0  0
   -0.0424   -0.9351    2.1908 H   0  0  0  0  0  0  0  0  0  0  0  0
   -0.6286   -1.2486    4.4811 H   0  0  0  0  0  0  0  0  0  0  0  0
    3.1593   -2.8703    5.1799 H   0  0  0  0  0  0  0  0  0  0  0  0
    3.8051   -2.5036    2.8054 H   0  0  0  0  0  0  0  0  0  0  0  0
    0.7970   -2.6801   -0.2554 H   0  0  0  0  0  0  0  0  0  0  0  0
    2.4755   -2.9636   -1.1051 H   0  0  0  0  0  0  0  0  0  0  0  0
    2.7771   -0.2133   -1.6019 H   0  0  0  0  0  0  0  0  0  0  0  0
    0.1370   -3.2750   -2.7764 F   0  0  0  0  0  0  0  0  0  0  0  0
    0.1835   -1.6353   -3.9483 F   0  0  0  0  0  0  0  0  0  0  0  0
    2.0441   -2.7205   -3.6076 F   0  0  0  0  0  0  0  0  0  0  0  0
    1.0755    0.9966   -1.9110 H   0  0  0  0  0  0  0  0  0  0  0  0
   -2.5198    0.3479   -1.1773 H   0  0  0  0  0  0  0  0  0  0  0  0
    0.7076    3.1785   -1.7083 H   0  0  0  0  0  0  0  0  0  0  0  0
   -0.8872    4.9959   -1.6872 H   0  0  0  0  0  0  0  0  0  0  0  0
  1  2  2  0
  1  7  1  0
  1 30  1  0
  2  3  1  0
  2 31  1  0
  3  4  1  0
  3  5  2  0
  5  6  1  0
  5 32  1  0
  6  7  2  0
  6 33  1  0
  7  8  1  0
  8  9  2  0
  8 10  2  0
  8 11  1  0
 11 12  1  0
 11 34  1  0
 11 35  1  0
 12 13  1  0
 12 14  1  0
 12 15  1  0
 13 36  1  0
 14 37  1  0
 14 38  1  0
 14 39  1  0
 15 16  2  0
 15 17  1  0
 17 18  1  0
 17 40  1  0
 18 19  2  0
 18 20  1  0
 19 25  1  0
 19 41  1  0
 20 21  2  0
 20 42  1  0
 21 22  1  0
 21 43  1  0
 22 23  1  0
 22 25  2  0
 23 24  3  0
 25 26  1  0
 26 27  1  0
 26 28  1  0
 26 29  1  0
M  END
>  <smiles>  (11) 
Cc1cc(NC(=O)C(O)(CS(=O)(=O)c2ccc(Cl)cc2)C(F)(F)F)ccc1C#N

>  <qed>  (11) 
0.732863720946364

$$$$
